/*--------------------------------*- C++ -*----------------------------------*\
| =========                 |                                                 |
| \\      /  F ield         | OpenFOAM: The Open Source CFD Toolbox           |
|  \\    /   O peration     | Version:  2.0                                   |
|   \\  /    A nd           | Web:      http://www.OpenFOAM.org               |
|    \\/     M anipulation  |                                                 |
\*---------------------------------------------------------------------------*/
FoamFile
{
    version     2.0;
    format      ascii;
    class       dictionary;
    object      turbineArrayProperties;
}
// * * * * * * * * * * * * * * * * * * * * * * * * * * * * * * * * * * * * * //
 
globalProperties
{
    outputControl       "timeStep";
    outputInterval       1;
}

// _SSC_
sscProperties
{
    sscEnabled          true; //Enable or disable SSC. If sscProperties{} not present, defaults to 'false'
    nInputsToSSC        8; // Number of inputs EACH turbine passes to the super controller
    nOutputsFromSSC     3; // Number of outputs the super controller sends to EACH turbine
    sscControllerType   "zeromqSSC"; // The type of SSC
    sscMeasurementsFunction "default"; // Measurements function
    zmqAddress          "tcp://localhost:3321"; // zeroMQ connection port
}
//NREL5MWRef
turbine0
{
    turbineType          "DTU10MWRef";
    baseLocation         (600.0 2400.0 0.0);
    nRadial              64; 		// Unsure
    azimuthMaxDis        2.0; 		// Unsure
    nAvgSector           1; 		// Unsure
    pointDistType        "uniform"; 	// From turbineArrayProperties (OpenFAST)
    pointInterpType      "linear"; 	// From turbineArrayProperties (OpenFAST)
    bladeUpdateType      "oldPosition"; // From turbineArrayProperties (OpenFAST)
    epsilon              20.0; 		// Should be twice the cell size
    forceScalar          1.15; 		// Unsure
    inflowVelocityScalar 1; 		// Unsure
    tipRootLossCorrType  "Glauert"; 	// Unsure
    rotationDir          "cw"; 		// From turbineArrayProperties (OpenFAST)
    Azimuth              0.0; 		// From turbineArrayProperties (OpenFAST)
    RotSpeed             7.5; 		// From turbineArrayProperties (OpenFAST)
    TorqueGen            0.0; 		// Unsure
    Pitch                0.0; 		// From turbineArrayProperties (OpenFAST)
    NacYaw               255.0; 
    fluidDensity         1.225; 	// From turbineArrayProperties (OpenFAST)
}

turbine1
{
    turbineType          "DTU10MWRef";
    baseLocation         (1500.0 2400.0 0.0);
    nRadial              64; 		// Unsure
    azimuthMaxDis        2.0; 		// Unsure
    nAvgSector           1; 		// Unsure
    pointDistType        "uniform"; 	// From turbineArrayProperties (OpenFAST)
    pointInterpType      "linear"; 	// From turbineArrayProperties (OpenFAST)
    bladeUpdateType      "oldPosition"; // From turbineArrayProperties (OpenFAST)
    epsilon              20.0; 		// Should be twice the cell size
    forceScalar          1.15; 		// Unsure
    inflowVelocityScalar 1; 		// Unsure
    tipRootLossCorrType  "Glauert"; 	// Unsure
    rotationDir          "cw"; 		// From turbineArrayProperties (OpenFAST)
    Azimuth              0.0; 		// From turbineArrayProperties (OpenFAST)
    RotSpeed             7.5; 		// From turbineArrayProperties (OpenFAST)
    TorqueGen            0.0; 		// Unsure
    Pitch                0.0; 		// From turbineArrayProperties (OpenFAST)
    NacYaw               255.0; 
    fluidDensity         1.225; 	// From turbineArrayProperties (OpenFAST)
}

turbine2
{
    turbineType          "DTU10MWRef";
    baseLocation         (2400.0 2400.0 0.0);
    nRadial              64; 		// Unsure
    azimuthMaxDis        2.0; 		// Unsure
    nAvgSector           1; 		// Unsure
    pointDistType        "uniform"; 	// From turbineArrayProperties (OpenFAST)
    pointInterpType      "linear"; 	// From turbineArrayProperties (OpenFAST)
    bladeUpdateType      "oldPosition"; // From turbineArrayProperties (OpenFAST)
    epsilon              20.0; 		// Should be twice the cell size
    forceScalar          1.15; 		// Unsure
    inflowVelocityScalar 1; 		// Unsure
    tipRootLossCorrType  "Glauert"; 	// Unsure
    rotationDir          "cw"; 		// From turbineArrayProperties (OpenFAST)
    Azimuth              0.0; 		// From turbineArrayProperties (OpenFAST)
    RotSpeed             7.5; 		// From turbineArrayProperties (OpenFAST)
    TorqueGen            0.0; 		// Unsure
    Pitch                0.0; 		// From turbineArrayProperties (OpenFAST)
    NacYaw               255.0; 
    fluidDensity         1.225; 	// From turbineArrayProperties (OpenFAST)
}

turbine3
{
    turbineType          "DTU10MWRef";
    baseLocation         (600.0 1500.0 0.0);
    nRadial              64; 		// Unsure
    azimuthMaxDis        2.0; 		// Unsure
    nAvgSector           1; 		// Unsure
    pointDistType        "uniform"; 	// From turbineArrayProperties (OpenFAST)
    pointInterpType      "linear"; 	// From turbineArrayProperties (OpenFAST)
    bladeUpdateType      "oldPosition"; // From turbineArrayProperties (OpenFAST)
    epsilon              20.0; 		// Should be twice the cell size
    forceScalar          1.15; 		// Unsure
    inflowVelocityScalar 1; 		// Unsure
    tipRootLossCorrType  "Glauert"; 	// Unsure
    rotationDir          "cw"; 		// From turbineArrayProperties (OpenFAST)
    Azimuth              0.0; 		// From turbineArrayProperties (OpenFAST)
    RotSpeed             7.5; 		// From turbineArrayProperties (OpenFAST)
    TorqueGen            0.0; 		// Unsure
    Pitch                0.0; 		// From turbineArrayProperties (OpenFAST)
    NacYaw               255.0; 
    fluidDensity         1.225; 	// From turbineArrayProperties (OpenFAST)
}

turbine4
{
    turbineType          "DTU10MWRef";
    baseLocation         (1500.0 1500.0 0.0);
    nRadial              64; 		// Unsure
    azimuthMaxDis        2.0; 		// Unsure
    nAvgSector           1; 		// Unsure
    pointDistType        "uniform"; 	// From turbineArrayProperties (OpenFAST)
    pointInterpType      "linear"; 	// From turbineArrayProperties (OpenFAST)
    bladeUpdateType      "oldPosition"; // From turbineArrayProperties (OpenFAST)
    epsilon              20.0; 		// Should be twice the cell size
    forceScalar          1.15; 		// Unsure
    inflowVelocityScalar 1; 		// Unsure
    tipRootLossCorrType  "Glauert"; 	// Unsure
    rotationDir          "cw"; 		// From turbineArrayProperties (OpenFAST)
    Azimuth              0.0; 		// From turbineArrayProperties (OpenFAST)
    RotSpeed             7.5; 		// From turbineArrayProperties (OpenFAST)
    TorqueGen            0.0; 		// Unsure
    Pitch                0.0; 		// From turbineArrayProperties (OpenFAST)
    NacYaw               255.0; 
    fluidDensity         1.225; 	// From turbineArrayProperties (OpenFAST)
}

turbine5
{
    turbineType          "DTU10MWRef";
    baseLocation         (2400.0 1500.0 0.0);
    nRadial              64; 		// Unsure
    azimuthMaxDis        2.0; 		// Unsure
    nAvgSector           1; 		// Unsure
    pointDistType        "uniform"; 	// From turbineArrayProperties (OpenFAST)
    pointInterpType      "linear"; 	// From turbineArrayProperties (OpenFAST)
    bladeUpdateType      "oldPosition"; // From turbineArrayProperties (OpenFAST)
    epsilon              20.0; 		// Should be twice the cell size
    forceScalar          1.15; 		// Unsure
    inflowVelocityScalar 1; 		// Unsure
    tipRootLossCorrType  "Glauert"; 	// Unsure
    rotationDir          "cw"; 		// From turbineArrayProperties (OpenFAST)
    Azimuth              0.0; 		// From turbineArrayProperties (OpenFAST)
    RotSpeed             7.5; 		// From turbineArrayProperties (OpenFAST)
    TorqueGen            0.0; 		// Unsure
    Pitch                0.0; 		// From turbineArrayProperties (OpenFAST)
    NacYaw               255.0; 
    fluidDensity         1.225; 	// From turbineArrayProperties (OpenFAST)
}

turbine6
{
    turbineType          "DTU10MWRef";
    baseLocation         (600.0 600.0 0.0);
    nRadial              64; 		// Unsure
    azimuthMaxDis        2.0; 		// Unsure
    nAvgSector           1; 		// Unsure
    pointDistType        "uniform"; 	// From turbineArrayProperties (OpenFAST)
    pointInterpType      "linear"; 	// From turbineArrayProperties (OpenFAST)
    bladeUpdateType      "oldPosition"; // From turbineArrayProperties (OpenFAST)
    epsilon              20.0; 		// Should be twice the cell size
    forceScalar          1.15; 		// Unsure
    inflowVelocityScalar 1; 		// Unsure
    tipRootLossCorrType  "Glauert"; 	// Unsure
    rotationDir          "cw"; 		// From turbineArrayProperties (OpenFAST)
    Azimuth              0.0; 		// From turbineArrayProperties (OpenFAST)
    RotSpeed             7.5; 		// From turbineArrayProperties (OpenFAST)
    TorqueGen            0.0; 		// Unsure
    Pitch                0.0; 		// From turbineArrayProperties (OpenFAST)
    NacYaw               255.0; 
    fluidDensity         1.225; 	// From turbineArrayProperties (OpenFAST)
}

turbine7
{
    turbineType          "DTU10MWRef";
    baseLocation         (1500.0 600.0 0.0);
    nRadial              64; 		// Unsure
    azimuthMaxDis        2.0; 		// Unsure
    nAvgSector           1; 		// Unsure
    pointDistType        "uniform"; 	// From turbineArrayProperties (OpenFAST)
    pointInterpType      "linear"; 	// From turbineArrayProperties (OpenFAST)
    bladeUpdateType      "oldPosition"; // From turbineArrayProperties (OpenFAST)
    epsilon              20.0; 		// Should be twice the cell size
    forceScalar          1.15; 		// Unsure
    inflowVelocityScalar 1; 		// Unsure
    tipRootLossCorrType  "Glauert"; 	// Unsure
    rotationDir          "cw"; 		// From turbineArrayProperties (OpenFAST)
    Azimuth              0.0; 		// From turbineArrayProperties (OpenFAST)
    RotSpeed             7.5; 		// From turbineArrayProperties (OpenFAST)
    TorqueGen            0.0; 		// Unsure
    Pitch                0.0; 		// From turbineArrayProperties (OpenFAST)
    NacYaw               255.0; 
    fluidDensity         1.225; 	// From turbineArrayProperties (OpenFAST)
}

turbine8
{
    turbineType          "DTU10MWRef";
    baseLocation         (2400.0 600.0 0.0);
    nRadial              64; 		// Unsure
    azimuthMaxDis        2.0; 		// Unsure
    nAvgSector           1; 		// Unsure
    pointDistType        "uniform"; 	// From turbineArrayProperties (OpenFAST)
    pointInterpType      "linear"; 	// From turbineArrayProperties (OpenFAST)
    bladeUpdateType      "oldPosition"; // From turbineArrayProperties (OpenFAST)
    epsilon              20.0; 		// Should be twice the cell size
    forceScalar          1.15; 		// Unsure
    inflowVelocityScalar 1; 		// Unsure
    tipRootLossCorrType  "Glauert"; 	// Unsure
    rotationDir          "cw"; 		// From turbineArrayProperties (OpenFAST)
    Azimuth              0.0; 		// From turbineArrayProperties (OpenFAST)
    RotSpeed             7.5; 		// From turbineArrayProperties (OpenFAST)
    TorqueGen            0.0; 		// Unsure
    Pitch                0.0; 		// From turbineArrayProperties (OpenFAST)
    NacYaw               255.0; 
    fluidDensity         1.225; 	// From turbineArrayProperties (OpenFAST)
}

